@<TRIPOS>MOLECULE
MOL
   10     9     1     0     0
SMALL
resp


@<TRIPOS>ATOM
      1 N1           0.1590     2.9670    -0.0800 N.1        1 MOL      -0.442075
      2 C1          -0.1590     1.8640    -0.0030 C.1        1 MOL       0.276773
      3 C2          -0.5800     0.4830     0.0660 C.3        1 MOL       0.022100
      4 C3           0.5800    -0.4830     0.0660 C.3        1 MOL       0.022100
      5 C4           0.1590    -1.8640    -0.0030 C.1        1 MOL       0.276773
      6 N2          -0.1590    -2.9670    -0.0800 N.1        1 MOL      -0.442075
      7 H1           1.1550    -0.2850    -0.7010 H          1 MOL       0.071601
      8 H2           1.1050    -0.3450     0.8800 H          1 MOL       0.071601
      9 H3          -1.1550     0.2850    -0.7010 H          1 MOL       0.071601
     10 H4          -1.1050     0.3450     0.8800 H          1 MOL       0.071601
@<TRIPOS>BOND
     1     1     2 3   
     2     2     3 1   
     3     3     4 1   
     4     3     9 1   
     5     3    10 1   
     6     4     5 1   
     7     4     7 1   
     8     4     8 1   
     9     5     6 3   
@<TRIPOS>SUBSTRUCTURE
     1 MOL         1 TEMP              0 ****  ****    0 ROOT
