
     RDKit          3D

  9  8  0  0  0  0  0  0  0  0999 V2000
    7.2090  124.8130  808.5440 S   0  0  0  0  0  6  0  0  0  0  0  0
    7.4100  123.5970  807.5260 F   0  0  0  0  0  0  0  0  0  0  0  0
    5.9720  124.4570  809.0680 O   0  0  0  0  0  0  0  0  0  0  0  0
    8.1860  124.9080  809.3530 O   0  0  0  0  0  0  0  0  0  0  0  0
    7.1680  125.9640  807.5960 N   0  0  0  0  0  0  0  0  0  0  0  0
    6.0090  126.2970  806.7170 S   0  0  2  0  0  6  0  0  0  0  0  0
    4.9940  126.9170  807.7860 F   0  0  0  0  0  0  0  0  0  0  0  0
    5.2590  125.1970  806.3170 O   0  0  0  0  0  0  0  0  0  0  0  0
    6.3250  127.1490  805.8280 O   0  0  0  0  0  1  0  0  0  0  0  0
  2  1  1  0
  3  1  2  0
  4  1  2  0
  5  1  1  0
  6  5  1  0
  6  7  1  1
  8  6  2  0
  9  6  2  0
M  CHG  1   5  -1
M  END
$$$$
