@<TRIPOS>MOLECULE
MOL
    9     8     1     0     0
SMALL
resp


@<TRIPOS>ATOM
      1 S1          -1.3920    -0.1510    -0.0870 S.3        1 MOL       1.299003
      2 F1          -1.6910     1.3810     0.4220 F          1 MOL      -0.272997
      3 O1          -1.3820    -0.9200     1.1320 O.2        1 MOL      -0.579307
      4 O2          -2.4170    -0.3860    -1.0670 O.2        1 MOL      -0.579307
      5 N1          -0.0000    -0.0000    -0.8360 N.2        1 MOL      -0.734783
      6 S2           1.3920     0.1510    -0.0870 S.o2       1 MOL       1.299003
      7 F2           1.6910    -1.3810     0.4220 F          1 MOL      -0.272997
      8 O3           1.3820     0.9200     1.1320 O.2        1 MOL      -0.579307
      9 O4           2.4170     0.3860    -1.0670 O.2        1 MOL      -0.579307
@<TRIPOS>BOND
     1     1     2 1   
     2     1     3 1   
     3     1     4 2   
     4     1     5 2   
     5     5     6 1   
     6     6     7 1   
     7     6     8 2   
     8     6     9 2   
@<TRIPOS>SUBSTRUCTURE
     1 MOL         1 TEMP              0 ****  ****    0 ROOT
