
     RDKit          3D

 10  9  0  0  0  0  0  0  0  0999 V2000
    7.4656    6.9323    3.8637 N   0  0  0  0  0  0  0  0  0  0  0  0
    8.1417    7.4995    3.1252 C   0  0  0  0  0  0  0  0  0  0  0  0
    8.9617    8.2215    2.1802 C   0  0  0  0  0  0  0  0  0  0  0  0
    9.9195    9.1793    2.8467 C   0  0  0  0  0  0  0  0  0  0  0  0
   10.6415    9.9993    1.9017 C   0  0  0  0  0  0  0  0  0  0  0  0
   11.2087   10.6754    1.1632 N   0  0  0  0  0  0  0  0  0  0  0  0
    9.4137    9.7593    3.4528 H   0  0  0  0  0  0  0  0  0  0  0  0
   10.5567    8.6650    3.3831 H   0  0  0  0  0  0  0  0  0  0  0  0
    8.3817    8.7273    1.5741 H   0  0  0  0  0  0  0  0  0  0  0  0
    9.4760    7.5843    1.6438 H   0  0  0  0  0  0  0  0  0  0  0  0
  2  1  3  0
  3  2  1  0
  4  3  1  0
  5  4  1  0
  6  5  3  0
  7  4  1  0
  8  4  1  0
  9  3  1  0
 10  3  1  0
M  END
$$$$
