@<TRIPOS>MOLECULE
MOL
   10     9     1     0     0
SMALL
resp


@<TRIPOS>ATOM
      1 N1           2.9620    -0.2070    -0.0000 N.1        1 MOL      -0.445087
      2 C1           1.8730     0.1600    -0.0000 C.1        1 MOL       0.296562
      3 C2           0.4820     0.6020     0.0000 C.3        1 MOL      -0.041506
      4 C3          -0.4820    -0.6010     0.0000 C.3        1 MOL      -0.041506
      5 C4          -1.8730    -0.1600    -0.0000 C.1        1 MOL       0.296562
      6 N2          -2.9620     0.2070    -0.0000 N.1        1 MOL      -0.445087
      7 H1          -0.3110    -1.2250    -0.8800 H          1 MOL       0.095016
      8 H2          -0.3110    -1.2250     0.8810 H          1 MOL       0.095016
      9 H3           0.3110     1.2250    -0.8800 H          1 MOL       0.095016
     10 H4           0.3110     1.2250     0.8810 H          1 MOL       0.095016
@<TRIPOS>BOND
     1     1     2 3   
     2     2     3 1   
     3     3     4 1   
     4     3     9 1   
     5     3    10 1   
     6     4     5 1   
     7     4     7 1   
     8     4     8 1   
     9     5     6 3   
@<TRIPOS>SUBSTRUCTURE
     1 MOL         1 TEMP              0 ****  ****    0 ROOT
