@<TRIPOS>MOLECULE
MOL
    9     8     1     0     0
SMALL
resp


@<TRIPOS>ATOM
      1 S1           1.3150     0.1260    -0.1250 S.3        1 MOL       1.573771
      2 F1           1.5290    -1.3750     0.3810 F          1 MOL      -0.351528
      3 O1           1.2540     0.7650     1.1080 O.2        1 MOL      -0.658995
      4 O2           2.2350     0.4820    -0.9280 O.2        1 MOL      -0.658995
      5 N1           0.0000    -0.0010    -0.8190 N.2        1 MOL      -0.808508
      6 S2          -1.3150    -0.1260    -0.1250 S.o2       1 MOL       1.573771
      7 F2          -1.5290     1.3760     0.3790 F          1 MOL      -0.351528
      8 O3          -1.2540    -0.7640     1.1090 O.2        1 MOL      -0.658995
      9 O4          -2.2350    -0.4830    -0.9270 O.2        1 MOL      -0.658995
@<TRIPOS>BOND
     1     1     2 1   
     2     1     3 1   
     3     1     4 2   
     4     1     5 2   
     5     5     6 1   
     6     6     7 1   
     7     6     8 2   
     8     6     9 2   
@<TRIPOS>SUBSTRUCTURE
     1 MOL         1 TEMP              0 ****  ****    0 ROOT
