
     RDKit          3D

 10  9  0  0  0  0  0  0  0  0999 V2000
    7.4660    6.9320    3.8640 N   0  0  0  0  0  0  0  0  0  0  0  0
    8.1420    7.4990    3.1250 C   0  0  0  0  0  0  0  0  0  0  0  0
    8.9620    8.2220    2.1800 C   0  0  0  0  0  0  0  0  0  0  0  0
    9.9190    9.1790    2.8470 C   0  0  0  0  0  0  0  0  0  0  0  0
   10.6420    9.9990    1.9020 C   0  0  0  0  0  0  0  0  0  0  0  0
   11.2090   10.6750    1.1630 N   0  0  0  0  0  0  0  0  0  0  0  0
    9.4140    9.7590    3.4530 H   0  0  0  0  0  0  0  0  0  0  0  0
   10.5570    8.6650    3.3830 H   0  0  0  0  0  0  0  0  0  0  0  0
    8.3820    8.7270    1.5740 H   0  0  0  0  0  0  0  0  0  0  0  0
    9.4760    7.5840    1.6440 H   0  0  0  0  0  0  0  0  0  0  0  0
  2  1  3  0
  3  2  1  0
  4  3  1  0
  5  4  1  0
  6  5  3  0
  7  4  1  0
  8  4  1  0
  9  3  1  0
 10  3  1  0
M  END
$$$$
