
     RDKit          3D

  9  8  0  0  0  0  0  0  0  0999 V2000
    6.9456   11.1325    4.9063 S   0  0  0  0  0  6  0  0  0  0  0  0
    7.4499   11.3430    6.4093 F   0  0  0  0  0  0  0  0  0  0  0  0
    7.7764   12.0456    4.2678 O   0  0  0  0  0  0  0  0  0  0  0  0
    7.0302    9.9135    4.5544 O   0  0  0  0  0  0  0  0  0  0  0  0
    5.5257   11.5727    5.0269 N   0  0  0  0  0  0  0  0  0  0  0  0
    5.0855   12.9926    5.1475 S   0  0  1  0  0  6  0  0  0  0  0  0
    5.2960   13.4969    3.6445 F   0  0  0  0  0  0  0  0  0  0  0  0
    3.8665   13.0772    5.4994 O   0  0  0  0  0  0  0  0  0  0  0  0
    5.9986   13.8234    5.7860 O   0  0  0  0  0  1  0  0  0  0  0  0
  2  1  1  0
  3  1  2  0
  4  1  2  0
  5  1  1  0
  6  5  1  0
  6  7  1  6
  8  6  2  0
  9  6  2  0
M  CHG  1   5  -1
M  END
$$$$
