@<TRIPOS>MOLECULE
MOL
    9     8     1     0     0
SMALL
resp


@<TRIPOS>ATOM
      1 S1           1.3910    -0.1510    -0.0870 S.3        1 MOL       1.298653
      2 F1           1.6910     1.3810     0.4220 F          1 MOL      -0.273176
      3 O1           1.3820    -0.9190     1.1320 O.2        1 MOL      -0.579118
      4 O2           2.4170    -0.3870    -1.0670 O.2        1 MOL      -0.579118
      5 N1           0.0000     0.0000    -0.8360 N.2        1 MOL      -0.734480
      6 S2          -1.3910     0.1510    -0.0870 S.o2       1 MOL       1.298653
      7 F2          -1.6890    -1.3810     0.4240 F          1 MOL      -0.273176
      8 O3          -2.4180     0.3830    -1.0680 O.2        1 MOL      -0.579118
      9 O4          -1.3830     0.9220     1.1300 O.2        1 MOL      -0.579118
@<TRIPOS>BOND
     1     1     2 1   
     2     1     3 1   
     3     1     4 2   
     4     1     5 2   
     5     5     6 1   
     6     6     7 1   
     7     6     8 2   
     8     6     9 2   
@<TRIPOS>SUBSTRUCTURE
     1 MOL         1 TEMP              0 ****  ****    0 ROOT
