@<TRIPOS>MOLECULE
MOL_1
10 9 0 0 0
SMALL
CHARGES


@<TRIPOS>ATOM
1 N 7.555613190155417 6.850251453228256 3.866312178444658 N  1  MOL_1 -0.4452500316695135
2 C 8.157865731495807 7.459181222529998 3.099880141665998 C  1  MOL_1 0.29526543793839394
3 C 8.936338552987634 8.24538318525564 2.148091674078945 C  1  MOL_1 -0.044687373402136306
4 C 9.895601693791495 9.204661304772166 2.8788205328509564 C  1  MOL_1 -0.044687373402136306
5 C 10.68179364270495 9.983095123883373 1.9269956159343908 C  1  MOL_1 0.29526543793839394
6 N 11.290744574531548 10.585390071578978 1.160608359580077 N  1  MOL_1 -0.4452500316695135
7 H 9.332384735081135 9.891629072407655 3.5144119036479053 H  1  MOL_1 0.09733598356662783
8 H 10.576573234285057 8.64523131636287 3.5242878452994706 H  1  MOL_1 0.09733598356662783
9 H 8.249385078392635 8.808615012157205 1.5125125030069417 H  1  MOL_1 0.09733598356662783
10 H 9.49578506516801 7.564458851435823 1.5025861234709497 H  1  MOL_1 0.09733598356662783
@<TRIPOS>BOND
1 2 1 3
2 3 2 1
3 4 3 1
4 5 4 1
5 6 5 3
6 7 4 1
7 8 4 1
8 9 3 1
9 10 3 1
@<TRIPOS>SUBSTRUCTURE
1 MOL_1 1 TEMP              0 ****  ****    0 ROOT
